tests/data/opendss_circuit_models/P4U/p4uhs0_4/p4uhs0_4--p4udt6/Master.dss
Clear

New Circuit.feeder_p4udt6-p4uhs0_4x bus1=p4udt6-p4uhs0_4x pu=1.03 basekV=4.0 R1=1e-05 X1=1e-05 R0=1e-05 X0=1e-05

Redirect LineCodes.dss
Redirect Lines.dss
Redirect Transformers.dss
Redirect Loads.dss
new monitor.m1 element=Line.l(r:p4udt6-p4uhs0_4)_s1 mode=0
new monitor.m2 element=Line.l(r:p4udt6-p4uhs0_4)_s1 mode=1
new energymeter.m3 Line.l(r:p4udt6-p4uhs0_4)_s1

Set Voltagebases=[0.48, 4.0]

Calcvoltagebases

Buscoords Buscoords.dss
set maxcontroliter=50
